@<TRIPOS>MOLECULE
/wynton/home/kortemme/xingjiepan/ligand_binding_sites/binding_sites_from_pdb/binding_site_database/56/256b/ligand_1.pdb.gz
 75 82 0 0 0
SMALL
GASTEIGER

@<TRIPOS>ATOM
      1 CHA         0.3270    8.3580   -1.6560 C.2   109  HEM109      0.0000
      2 CHB        -0.9710    9.8110    2.7480 C.2   109  HEM109      0.0000
      3 CHC        -5.5720    8.7000    1.7360 C.2   109  HEM109      0.0000
      4 CHD        -4.3040    7.5120   -2.7650 C.2   109  HEM109      0.0000
      5 C1A         0.4220    8.8580   -0.3780 C.ar  109  HEM109      0.0000
      6 C2A         1.6140    9.3260    0.3040 C.ar  109  HEM109      0.0000
      7 C3A         1.2400    9.7270    1.5220 C.ar  109  HEM109      0.0000
      8 C4A        -0.1970    9.5420    1.6450 C.ar  109  HEM109      0.0000
      9 CMA         2.0950   10.3410    2.6630 C.3   109  HEM109      0.0000
     10 CAA         3.0350    9.3680   -0.2850 C.3   109  HEM109      0.0000
     11 CBA         3.4940   10.4190   -1.2790 C.3   109  HEM109      0.0000
     12 CGA         3.7840   11.8480   -0.9160 C.2   109  HEM109      0.0000
     13 O1A         2.8180   12.5040   -0.4390 O.2   109  HEM109      0.0000
     14 O2A         4.9270   12.3810   -1.0780 O.3   109  HEM109      0.0000
     15 C1B        -2.3200    9.6200    2.8710 C.2   109  HEM109      0.0000
     16 C2B        -3.1280    9.9080    4.0300 C.2   109  HEM109      0.0000
     17 C3B        -4.3940    9.6220    3.7520 C.2   109  HEM109      0.0000
     18 C4B        -4.4200    9.1050    2.3790 C.2   109  HEM109      0.0000
     19 CMB        -2.5310   10.4860    5.3380 C.3   109  HEM109      0.0000
     20 CAB        -5.6450    9.7620    4.6190 C.2   109  HEM109      0.0000
     21 CBB        -5.5770   10.4690    5.7490 C.2   109  HEM109      0.0000
     22 C1C        -5.6030    8.2650    0.4290 C.ar  109  HEM109      0.0000
     23 C2C        -6.8420    7.8930   -0.2740 C.ar  109  HEM109      0.0000
     24 C3C        -6.4850    7.5680   -1.5160 C.ar  109  HEM109      0.0000
     25 C4C        -5.0540    7.7000   -1.6320 C.ar  109  HEM109      0.0000
     26 CMC        -8.2190    7.8890    0.4050 C.3   109  HEM109      0.0000
     27 CAC        -7.3870    7.0820   -2.6840 C.2   109  HEM109      0.0000
     28 CBC        -8.6410    7.4910   -2.6690 C.2   109  HEM109      0.0000
     29 C1D        -2.9460    7.6670   -2.8750 C.2   109  HEM109      0.0000
     30 C2D        -2.1660    7.4010   -4.0580 C.2   109  HEM109      0.0000
     31 C3D        -0.8800    7.6080   -3.7730 C.2   109  HEM109      0.0000
     32 C4D        -0.8250    8.0640   -2.3790 C.2   109  HEM109      0.0000
     33 CMD        -2.7940    6.9330   -5.3960 C.3   109  HEM109      0.0000
     34 CAD         0.3640    7.5080   -4.6760 C.3   109  HEM109      0.0000
     35 CBD         0.5890    8.7660   -5.5290 C.3   109  HEM109      0.0000
     36 CGD         1.7790    8.7460   -6.4770 C.2   109  HEM109      0.0000
     37 O1D         1.9200    9.8330   -7.1190 O.2   109  HEM109      0.0000
     38 O2D         2.4690    7.6960   -6.5040 O.3   109  HEM109      0.0000
     39 NA         -0.6910    8.9980    0.4590 N.ar  109  HEM109      0.0000
     40 NB         -3.1540    9.1530    1.8560 N.2   109  HEM109      0.0000
     41 NC         -4.5350    8.1760   -0.4410 N.ar  109  HEM109      0.0000
     42 ND         -2.0900    8.0540   -1.8480 N.2   109  HEM109      0.0000
     43 FE         -2.6150    8.6110    0.0190 Fe    109  HEM109      0.0000
     44 HHA         1.2840    8.3570   -2.1770 H     109  HEM109      0.0000
     45 HHB        -0.4880   10.2230    3.6340 H     109  HEM109      0.0000
     46 HHC        -6.5120    8.7230    2.2870 H     109  HEM109      0.0000
     47 HHD        -4.8120    7.2130   -3.6810 H     109  HEM109      0.0000
     48 HMA         2.1090   11.4260    2.5630 H     109  HEM109      0.0000
     49 HMAA        1.6630   10.0710    3.6270 H     109  HEM109      0.0000
     50 HMAB        3.1140    9.9570    2.6010 H     109  HEM109      0.0000
     51 HAA         3.7590    9.4820    0.5210 H     109  HEM109      0.0000
     52 HAAA        3.2330    8.4410   -0.8240 H     109  HEM109      0.0000
     53 HBA         4.4370   10.1060   -1.7290 H     109  HEM109      0.0000
     54 HBAA        2.7410   10.5340   -2.0580 H     109  HEM109      0.0000
     55 H2A         5.0210   13.3070   -0.8160 H     109  HEM109      0.0000
     56 HMB        -1.4560   10.6220    5.2180 H     109  HEM109      0.0000
     57 HMBA       -2.9970   11.4470    5.5570 H     109  HEM109      0.0000
     58 HMBB       -2.7200    9.7950    6.1600 H     109  HEM109      0.0000
     59 HAB        -6.5680    9.2920    4.3150 H     109  HEM109      0.0000
     60 HBB        -6.4230   10.4960    6.4200 H     109  HEM109      0.0000
     61 HBBA       -4.6760   11.0130    5.9930 H     109  HEM109      0.0000
     62 HMC        -8.1120    8.1970    1.4450 H     109  HEM109      0.0000
     63 HMCA       -8.8800    8.5830   -0.1140 H     109  HEM109      0.0000
     64 HMCB       -8.6410    6.8850    0.3630 H     109  HEM109      0.0000
     65 HAC        -6.9770    6.4420   -3.4520 H     109  HEM109      0.0000
     66 HBC        -9.0100    8.0690   -1.8350 H     109  HEM109      0.0000
     67 HBCA       -9.2980    7.2490   -3.4920 H     109  HEM109      0.0000
     68 HMD        -3.8740    6.8480   -5.2800 H     109  HEM109      0.0000
     69 HMDA       -2.5680    7.6590   -6.1770 H     109  HEM109      0.0000
     70 HMDB       -2.3800    5.9620   -5.6710 H     109  HEM109      0.0000
     71 HAD         1.2510    7.3630   -4.0580 H     109  HEM109      0.0000
     72 HADA        0.2530    6.6620   -5.3560 H     109  HEM109      0.0000
     73 HBD        -0.2860    8.9420   -6.1560 H     109  HEM109      0.0000
     74 HBDA        0.7450    9.6250   -4.8750 H     109  HEM109      0.0000
     75 H2D         3.2250    7.6830   -7.1060 H     109  HEM109      0.0000
@<TRIPOS>BOND
     1     1     5    2
     2     1    32    1
     3     1    44    1
     4     2     8    2
     5     2    15    1
     6     2    45    1
     7     3    18    2
     8     3    22    1
     9     3    46    1
    10     4    25    1
    11     4    29    2
    12     4    47    1
    13     5     6   ar
    14     5    39   ar
    15     6     7   ar
    16     6    10    1
    17     7     8   ar
    18     7     9    1
    19     8    39   ar
    20     9    48    1
    21     9    49    1
    22     9    50    1
    23    10    11    1
    24    10    51    1
    25    10    52    1
    26    11    12    1
    27    11    53    1
    28    11    54    1
    29    12    13    2
    30    12    14    1
    31    14    55    1
    32    15    16    1
    33    15    40    2
    34    16    17    2
    35    16    19    1
    36    17    18    1
    37    17    20    1
    38    18    40    1
    39    19    56    1
    40    19    57    1
    41    19    58    1
    42    20    21    2
    43    20    59    1
    44    21    60    1
    45    21    61    1
    46    22    23   ar
    47    22    41   ar
    48    23    24   ar
    49    23    26    1
    50    24    25   ar
    51    24    27    1
    52    25    41   ar
    53    26    62    1
    54    26    63    1
    55    26    64    1
    56    27    28    2
    57    27    65    1
    58    28    66    1
    59    28    67    1
    60    29    30    1
    61    29    42    1
    62    30    31    2
    63    30    33    1
    64    31    32    1
    65    31    34    1
    66    32    42    2
    67    33    68    1
    68    33    69    1
    69    33    70    1
    70    34    35    1
    71    34    71    1
    72    34    72    1
    73    35    36    1
    74    35    73    1
    75    35    74    1
    76    36    37    2
    77    36    38    1
    78    38    75    1
    79    39    43    1
    80    40    43    1
    81    41    43    1
    82    42    43    1
