@<TRIPOS>MOLECULE
/wynton/home/kortemme/xingjiepan/ligand_binding_sites/binding_sites_from_pdb/binding_site_database/56/256b/ligand_0.pdb.gz
 5 4 0 0 0
SMALL
GASTEIGER

@<TRIPOS>ATOM
      1 S         -17.9200   10.1050  -10.8430 S.3   107  SO4107      0.2666
      2 O1        -16.7680    9.9170   -9.9030 O.2   107  SO4107     -0.1133
      3 O2        -19.0520    9.1830  -10.4800 O.2   107  SO4107     -0.1133
      4 O3        -18.4180   11.5260  -10.7530 O.3   107  SO4107     -0.0200
      5 O4        -17.4790    9.8560  -12.2570 O.3   107  SO4107     -0.0200
@<TRIPOS>BOND
     1     1     2    2
     2     1     3    2
     3     1     4    1
     4     1     5    1
